Circuit: * C:\Users\Tanya\Desktop\Lftspice\Draft1.asc

Direct Newton iteration for .op point succeeded.

Date: Fri Jun 11 22:48:19 2021
Total elapsed time: 0.185 seconds.

tnom = 27
temp = 27
method = modified trap
totiter = 7734
traniter = 7725
tranpoints = 3104
accept = 2667
rejected = 437
matrix size = 31
fillins = 11
solver = Normal
Matrix Compiler1: 1.28 KB object code size  0.4/0.4/[0.2]
Matrix Compiler2: off  [0.2]/0.7/0.3

